Version 4
SHEET 1 880 680
WIRE 256 160 160 160
WIRE 352 160 352 128
WIRE 352 160 320 160
WIRE 384 160 352 160
WIRE 496 176 448 176
WIRE 160 192 160 160
WIRE 384 192 352 192
WIRE 352 256 352 192
WIRE 384 256 352 256
WIRE 496 256 496 176
WIRE 496 256 464 256
WIRE 160 288 160 272
WIRE 352 288 352 256
WIRE -176 336 -176 320
WIRE -32 336 -32 320
WIRE 352 384 352 368
WIRE 352 464 352 448
FLAG 352 464 0
FLAG 160 288 0
FLAG -176 336 0
FLAG 416 208 0
FLAG 416 144 3.3v
FLAG -32 240 3.3v
FLAG 352 48 1.65
FLAG -176 240 1.65
FLAG -32 336 0
SYMBOL res 336 32 R0
SYMATTR InstName R1
SYMATTR Value 1k
SYMBOL res 336 272 R0
SYMATTR InstName R2
SYMATTR Value 1k
SYMBOL res 480 240 R90
WINDOW 0 0 56 VBottom 2
WINDOW 3 32 56 VTop 2
SYMATTR InstName R3
SYMATTR Value 16k
SYMBOL cap 320 144 R90
WINDOW 0 0 32 VBottom 2
WINDOW 3 32 32 VTop 2
SYMATTR InstName C1
SYMATTR Value 1.8n
SYMBOL cap 368 448 R180
WINDOW 0 24 56 Left 2
WINDOW 3 24 8 Left 2
SYMATTR InstName C2
SYMATTR Value 1.8n
SYMBOL voltage 160 176 R0
WINDOW 123 0 0 Left 0
WINDOW 39 0 0 Left 0
SYMATTR InstName V1
SYMATTR Value SINE(0 ac)
SYMBOL voltage -176 224 R0
WINDOW 123 0 0 Left 0
WINDOW 39 0 0 Left 0
SYMATTR InstName V2
SYMATTR Value 1.65
SYMBOL OpAmps\\UniversalOpAmp2 416 176 R0
SYMATTR InstName U1
SYMATTR Value2 Avol=1Meg GBW=20Meg Slew=10Meg
SYMBOL voltage -32 224 R0
WINDOW 123 0 0 Left 0
WINDOW 39 0 0 Left 0
SYMATTR InstName V3
SYMATTR Value 3.3
TEXT 126 488 Left 2 !.ac dec 100 100k 100meg
