Version 4
SHEET 1 1140 732
WIRE 320 -64 96 -64
WIRE 496 -64 384 -64
WIRE 816 -64 672 -64
WIRE 1072 -64 896 -64
WIRE -384 -32 -384 -48
WIRE 320 64 288 64
WIRE 896 64 864 64
WIRE -480 80 -544 80
WIRE -384 80 -384 48
WIRE -384 80 -416 80
WIRE -320 80 -352 80
WIRE 496 80 496 -64
WIRE 496 80 384 80
WIRE 544 80 496 80
WIRE 1072 80 1072 -64
WIRE 1072 80 960 80
WIRE -208 96 -256 96
WIRE -16 96 -208 96
WIRE 96 96 96 -64
WIRE 96 96 64 96
WIRE 128 96 96 96
WIRE 240 96 208 96
WIRE 320 96 240 96
WIRE 544 96 544 80
WIRE 576 96 544 96
WIRE 672 96 672 -64
WIRE 672 96 640 96
WIRE 704 96 672 96
WIRE 800 96 768 96
WIRE 896 96 800 96
WIRE -544 112 -544 80
WIRE -384 112 -384 80
WIRE -320 112 -384 112
WIRE 496 112 496 80
WIRE 800 112 800 96
WIRE 1072 112 1072 80
WIRE 240 128 240 96
WIRE -352 176 -352 80
WIRE -320 176 -352 176
WIRE -208 176 -208 96
WIRE -208 176 -240 176
WIRE -544 208 -544 192
WIRE -352 208 -352 176
WIRE 288 208 288 64
WIRE 496 208 496 192
WIRE 496 208 288 208
WIRE 864 208 864 64
WIRE 1072 208 1072 192
WIRE 1072 208 864 208
WIRE 496 224 496 208
WIRE 800 224 800 192
WIRE 1072 224 1072 208
WIRE -352 304 -352 288
WIRE -1248 512 -1248 496
WIRE -1104 512 -1104 496
FLAG -544 208 0
FLAG -1248 512 0
FLAG -288 128 0
FLAG -288 64 3.3v
FLAG -1104 416 3.3v
FLAG -384 -48 1.65v
FLAG -1248 416 1.65v
FLAG -1104 512 0
FLAG -352 368 1.65v
FLAG 352 112 0
FLAG 352 48 3.3v
FLAG 240 192 1.65v
FLAG 496 304 1.65v
FLAG 928 112 0
FLAG 928 48 3.3v
FLAG 800 224 1.65v
FLAG 1072 304 1.65v
SYMBOL voltage -544 96 R0
WINDOW 123 0 0 Left 0
WINDOW 39 0 0 Left 0
SYMATTR InstName V4
SYMATTR Value SINE(0 ac)
SYMBOL voltage -1248 400 R0
WINDOW 123 0 0 Left 0
WINDOW 39 0 0 Left 0
SYMATTR InstName V5
SYMATTR Value 1.65
SYMBOL voltage -1104 400 R0
WINDOW 123 0 0 Left 0
WINDOW 39 0 0 Left 0
SYMATTR InstName V6
SYMATTR Value 3.3
SYMBOL OpAmps\\ADA4891 352 16 R0
SYMATTR InstName U2
SYMBOL res 80 80 R90
WINDOW 0 0 56 VBottom 2
WINDOW 3 32 56 VTop 2
SYMATTR InstName R2
SYMATTR Value 1k
SYMBOL res 224 80 R90
WINDOW 0 0 56 VBottom 2
WINDOW 3 32 56 VTop 2
SYMATTR InstName R3
SYMATTR Value 10k
SYMBOL cap 224 128 R0
SYMATTR InstName C1
SYMATTR Value 39p
SYMBOL cap 384 -80 R90
WINDOW 0 0 32 VBottom 2
WINDOW 3 32 32 VTop 2
SYMATTR InstName C2
SYMATTR Value 33p
SYMBOL res 480 96 R0
SYMATTR InstName R4
SYMATTR Value 10k
SYMBOL res 480 208 R0
SYMATTR InstName R5
SYMATTR Value 1k
SYMBOL OpAmps\\ADA4891 928 16 R0
SYMATTR InstName U1
SYMBOL res 1056 96 R0
SYMATTR InstName R6
SYMATTR Value 10k
SYMBOL res 1056 208 R0
SYMATTR InstName R7
SYMATTR Value 1k
SYMBOL cap 640 80 R90
WINDOW 0 0 32 VBottom 2
WINDOW 3 32 32 VTop 2
SYMATTR InstName C3
SYMATTR Value 39p
SYMBOL cap 768 80 R90
WINDOW 0 0 32 VBottom 2
WINDOW 3 32 32 VTop 2
SYMATTR InstName C4
SYMATTR Value 39p
SYMBOL res 784 96 R0
SYMATTR InstName R1
SYMATTR Value 12k
SYMBOL res 912 -80 R90
WINDOW 0 0 56 VBottom 2
WINDOW 3 32 56 VTop 2
SYMATTR InstName R8
SYMATTR Value 68k
SYMBOL res -400 -48 R0
SYMATTR InstName R9
SYMATTR Value 1k
SYMBOL res -368 192 R0
SYMATTR InstName R10
SYMATTR Value 1k
SYMBOL res -224 160 R90
WINDOW 0 0 56 VBottom 2
WINDOW 3 32 56 VTop 2
SYMATTR InstName R11
SYMATTR Value 15k
SYMBOL cap -368 304 R0
SYMATTR InstName C5
SYMATTR Value 1.8n
SYMBOL cap -416 64 R90
WINDOW 0 0 32 VBottom 2
WINDOW 3 32 32 VTop 2
SYMATTR InstName C6
SYMATTR Value 1.8n
SYMBOL OpAmps\\UniversalOpAmp2 -288 96 R0
SYMATTR InstName U4
SYMATTR Value2 Avol=1Meg GBW=20Meg Slew=10Meg
TEXT -1184 624 Left 2 !.ac dec 100 1k 100meg
