Version 4
SHEET 1 1332 680
WIRE -160 -64 -160 -96
WIRE 320 -64 48 -64
WIRE 496 -64 384 -64
WIRE 816 -64 672 -64
WIRE 1088 -64 896 -64
WIRE 320 64 288 64
WIRE 912 64 880 64
WIRE 496 80 496 -64
WIRE 496 80 384 80
WIRE 544 80 496 80
WIRE 1088 80 1088 -64
WIRE 1088 80 976 80
WIRE 1152 80 1088 80
WIRE 1264 80 1216 80
WIRE -160 96 -160 16
WIRE -80 96 -160 96
WIRE 48 96 48 -64
WIRE 48 96 0 96
WIRE 96 96 48 96
WIRE 224 96 176 96
WIRE 320 96 224 96
WIRE 544 96 544 80
WIRE 576 96 544 96
WIRE 672 96 672 -64
WIRE 672 96 640 96
WIRE 704 96 672 96
WIRE 800 96 768 96
WIRE 912 96 800 96
WIRE 496 112 496 80
WIRE 800 112 800 96
WIRE 1088 112 1088 80
WIRE 1264 112 1264 80
WIRE 224 128 224 96
WIRE -160 176 -160 96
WIRE 288 208 288 64
WIRE 496 208 496 192
WIRE 496 208 288 208
WIRE 880 208 880 64
WIRE 1088 208 1088 192
WIRE 1088 208 880 208
WIRE 496 224 496 208
WIRE 800 224 800 192
WIRE 1088 224 1088 208
WIRE -160 320 -160 256
WIRE -512 448 -512 432
WIRE -368 448 -368 432
FLAG -512 448 0
FLAG -368 352 3.3v
FLAG -512 352 1.65v
FLAG -368 448 0
FLAG 352 112 0
FLAG 352 48 3.3v
FLAG 224 192 1.65v
FLAG 496 304 1.65v
FLAG 944 112 0
FLAG 944 48 3.3v
FLAG 800 224 1.65v
FLAG 1088 304 1.65v
FLAG -160 320 0
FLAG -160 -96 1.65v
FLAG 1264 192 1.65v
DATAFLAG 1088 48 ""
DATAFLAG 448 -64 ""
SYMBOL voltage -512 336 R0
WINDOW 123 0 0 Left 0
WINDOW 39 0 0 Left 0
SYMATTR InstName V3
SYMATTR Value 1.65
SYMBOL voltage -368 336 R0
WINDOW 123 0 0 Left 0
WINDOW 39 0 0 Left 0
SYMATTR InstName V4
SYMATTR Value 3.3
SYMBOL OpAmps\\ADA4891 352 16 R0
SYMATTR InstName U2
SYMBOL res 16 80 R90
WINDOW 0 0 56 VBottom 2
WINDOW 3 32 56 VTop 2
SYMATTR InstName R2
SYMATTR Value 1k
SYMBOL res 192 80 R90
WINDOW 0 0 56 VBottom 2
WINDOW 3 32 56 VTop 2
SYMATTR InstName R3
SYMATTR Value 10k
SYMBOL cap 208 128 R0
SYMATTR InstName C1
SYMATTR Value 33p
SYMBOL cap 384 -80 R90
WINDOW 0 0 32 VBottom 2
WINDOW 3 32 32 VTop 2
SYMATTR InstName C2
SYMATTR Value 33p
SYMBOL res 480 96 R0
SYMATTR InstName R4
SYMATTR Value 10k
SYMBOL res 480 208 R0
SYMATTR InstName R5
SYMATTR Value 1k
SYMBOL OpAmps\\ADA4891 944 16 R0
SYMATTR InstName U1
SYMBOL res 1072 96 R0
SYMATTR InstName R6
SYMATTR Value 10k
SYMBOL res 1072 208 R0
SYMATTR InstName R7
SYMATTR Value 1k
SYMBOL cap 640 80 R90
WINDOW 0 0 32 VBottom 2
WINDOW 3 32 32 VTop 2
SYMATTR InstName C3
SYMATTR Value 10p
SYMBOL cap 768 80 R90
WINDOW 0 0 32 VBottom 2
WINDOW 3 32 32 VTop 2
SYMATTR InstName C4
SYMATTR Value 10p
SYMBOL res 784 96 R0
SYMATTR InstName R1
SYMATTR Value 12k
SYMBOL res 912 -80 R90
WINDOW 0 0 56 VBottom 2
WINDOW 3 32 56 VTop 2
SYMATTR InstName R8
SYMATTR Value 68k
SYMBOL voltage -160 160 R0
WINDOW 123 0 0 Left 0
WINDOW 39 0 0 Left 0
SYMATTR InstName V1
SYMATTR Value SINE(1.65 ac)
SYMBOL res -176 -80 R0
SYMATTR InstName R10
SYMATTR Value 1Meg
SYMBOL res 1248 96 R0
SYMATTR InstName R9
SYMATTR Value 10k
SYMBOL cap 1216 64 R90
WINDOW 0 0 32 VBottom 2
WINDOW 3 32 32 VTop 2
SYMATTR InstName C5
SYMATTR Value 33p
TEXT -528 472 Left 2 !.ac dec 100 1k 100Meg
TEXT -528 496 Left 2 !;op dec 100 1k 100Meg
